Circuit: * C:\Users\nisar\My Files\IIT Kharagpur\SecondYear\Signet\LAB\exp2\Q1\Q1(i).asc

Direct Newton iteration for .op point succeeded.

Date: Sun Oct 25 03:57:58 2020
Total elapsed time: 8.952 seconds.

tnom = 27
temp = 27
method = modified trap
totiter = 3000037
traniter = 3000034
tranpoints = 1500018
accept = 1500018
rejected = 0
matrix size = 4
fillins = 0
solver = Normal
Matrix Compiler1: 100 bytes object code size  0.1/0.1/[0.1]
Matrix Compiler2:      21 opcodes  0.1/[0.1]/0.1

