Circuit: * C:\Users\nisar\My Files\IIT Kharagpur\SecondYear\Signet\LAB\exp2\Q1\Q1(iii).asc

Direct Newton iteration for .op point succeeded.

Date: Sun Oct 25 04:02:04 2020
Total elapsed time: 10.740 seconds.

tnom = 27
temp = 27
method = modified trap
totiter = 3000037
traniter = 3000034
tranpoints = 1500018
accept = 1500018
rejected = 0
matrix size = 4
fillins = 0
solver = Normal
Matrix Compiler1:       6 opcodes  0.1/[0.1]/0.1
Matrix Compiler2:      21 opcodes  0.1/[0.1]/0.1

