Circuit: * C:\Users\nisar\My Files\IIT Kharagpur\SecondYear\Signet\LAB\exp2\Q2\Q2(iii) - PartA.asc

Direct Newton iteration for .op point succeeded.

Date: Sun Oct 25 03:48:20 2020
Total elapsed time: 8.848 seconds.

tnom = 27
temp = 27
method = modified trap
totiter = 3000037
traniter = 3000034
tranpoints = 1500018
accept = 1500018
rejected = 0
matrix size = 1
fillins = 0
solver = Normal
Matrix Compiler1: off  0.0/[0.0]/0.1
Matrix Compiler2: off  [0.1]/0.1/0.1

