Circuit: * C:\Users\nisar\My Files\IIT Kharagpur\SecondYear\Signet\LAB\exp2\Q2\Q2(i) - PartA.asc

Direct Newton iteration for .op point succeeded.

Date: Sat Oct 24 21:56:53 2020
Total elapsed time: 9.162 seconds.

tnom = 27
temp = 27
method = modified trap
totiter = 3000037
traniter = 3000034
tranpoints = 1500018
accept = 1500018
rejected = 0
matrix size = 1
fillins = 0
solver = Normal
Matrix Compiler1: off  0.0/0.0/[0.0]
Matrix Compiler2: 43 bytes object code size  0.0/0.0/[0.0]

