Circuit: * C:\Users\nisar\My Files\IIT Kharagpur\SecondYear\Signet\LAB\exp1\circuit1.asc

.OP point found by inspection.

Date: Sun Sep 27 11:30:15 2020
Total elapsed time: 1.478 seconds.

tnom = 27
temp = 27
method = modified trap
totiter = 500096
traniter = 500096
tranpoints = 250049
accept = 250047
rejected = 2
matrix size = 6
fillins = 0
solver = Normal
Matrix Compiler1: 414 bytes object code size  0.3/0.2/[0.2]
Matrix Compiler2: off  [0.1]/0.2/0.2

