Circuit: * C:\Users\nisar\My Files\IIT Kharagpur\SecondYear\Signet\LAB\exp1\Draft2.asc

.OP point found by inspection.

Date: Fri Sep 25 21:45:42 2020
Total elapsed time: 1.065 seconds.

tnom = 27
temp = 27
method = modified trap
totiter = 500096
traniter = 500096
tranpoints = 250049
accept = 250047
rejected = 2
matrix size = 6
fillins = 0
solver = Normal
Matrix Compiler1: 414 bytes object code size  0.1/0.1/[0.0]
Matrix Compiler2: off  [0.0]/0.0/0.0

