Circuit: * C:\Users\nisar\My Files\IIT Kharagpur\SecondYear\Signet\LAB\exp4\SNLABEXP4 - Copy.asc


Date: Sun Nov 08 17:47:37 2020
Total elapsed time: 0.069 seconds.

tnom = 27
temp = 27
method = trap
totiter = 0
traniter = 0
tranpoints = 0
accept = 0
rejected = 0
matrix size = 4
fillins = 0
solver = Normal

