Circuit: * C:\Users\nisar\My Files\IIT Kharagpur\SecondYear\Signet\LAB\exp4\SNLABEXP4.asc

WARNING: Node NC_05 is floating.

Instance "m:u1:6": Length shorter than recommended for a level 2 MOSFET.
Instance "m:u1:5": Length shorter than recommended for a level 2 MOSFET.
Direct Newton iteration failed to find .op point.  (Use ".option noopiter" to skip.)
Starting Gmin stepping
Gmin = 10
Gmin = 1.07374
Gmin = 0.115292
Gmin = 0.0123794
Gmin = 0.00132923
vernier = 0.5
vernier = 0.25
vernier = 0.125
vernier = 0.0625
Gmin = 0.00100083
vernier = 0.03125
vernier = 0.015625
vernier = 0.0078125
vernier = 0.00390625
vernier = 0.00195313
Gmin = 0.00100083
vernier = 0.000976563
vernier = 0.000488281
Gmin = 0
Gmin stepping succeeded in finding the operating point.


Date: Sun Nov 08 18:58:49 2020
Total elapsed time: 0.100 seconds.

tnom = 27
temp = 27
method = trap
totiter = 1471
traniter = 0
tranpoints = 0
accept = 0
rejected = 0
matrix size = 49
fillins = 36
solver = Normal
Matrix Compiler1:     286 opcodes
Matrix Compiler2: off  [0.5]/0.6/0.6

